Circuit: * C:\Users\Mark.Smith\Dropbox\personal\SurfnCircuits\Analog15TimerForBWMTrunkLight\LTSims\BMW_E36_TrunkLightHack.asc

Direct Newton iteration failed to find .op point.  (Use ".option noopiter" to skip.)
Starting Gmin stepping
Gmin = 10
Gmin = 1.07374
Gmin = 0.115292
Gmin = 0.0123794
Gmin = 0.00132923
Gmin = 0.000142725
Gmin = 1.5325e-005
Gmin = 1.6455e-006
Gmin = 1.76685e-007
Gmin = 1.89714e-008
Gmin = 2.03704e-009
Gmin = 2.18725e-010
Gmin = 2.34854e-011
Gmin = 2.52173e-012
Gmin = 2.70769e-013
Gmin = 0
Gmin stepping succeeded in finding the operating point.

Heightened Def Con from 2400 to 2400

Date: Wed Aug 23 11:46:33 2017
Total elapsed time: 33.700 seconds.

tnom = 27
temp = 27
method = modified trap
totiter = 904836
traniter = 904473
tranpoints = 451233
accept = 450881
rejected = 353
matrix size = 33
fillins = 18
solver = Normal
Matrix Compiler1: 3.64 KB object code size  1.1/0.4/[0.3]
Matrix Compiler2: 3.17 KB object code size  0.5/0.6/[0.4]


